tests/data/opendss_circuit_models/SFO/accdf54c-c90c-4c41-9d7a-5e5d3d17a4e5/Master.dss
Clear

New Circuit.feeder_p10udt4214-p10uhs4_1247x bus1=p10udt4214-p10uhs4_1247x pu=1.02 basekV=12.47 R1=1e-05 X1=1e-05 R0=1e-05 X0=1e-05

Redirect LineCodes.dss
Redirect Lines.dss
Redirect Transformers.dss
Redirect Loads.dss
Redirect Capacitors.dss

new monitor.m1 element=Line.l(r:p10udt4214-p10uhs4_1247) mode=0
new monitor.m2 element=Line.l(r:p10udt4214-p10uhs4_1247) mode=1
new energymeter.m3 Line.l(r:p10udt4214-p10uhs4_1247)


Set Voltagebases=[0.12, 0.208, 0.48, 12.47]

Calcvoltagebases

Buscoords Buscoords.dss
set maxcontroliter=50

Solve
Plot Profile Phases=All
Plot Circuit Power Max=1500 dots=y labels=n subs=y C1=Blue 


